
#======================================================================
# CRYSTAL DATA
#----------------------------------------------------------------------
data_VESTA_phase_1

_chemical_name_common                  ' 3D\Atomistic                         '
_cell_length_a                         10.593235
_cell_length_b                         10.593282
_cell_length_c                         15.000000
_cell_angle_alpha                      90.000000
_cell_angle_beta                       90.000000
_cell_angle_gamma                      90.000000
_cell_volume                           1683.256847
_space_group_name_H-M_alt              'P 1'
_space_group_IT_number                 1

loop_
_space_group_symop_operation_xyz
   'x, y, z'

loop_
   _atom_site_label
   _atom_site_occupancy
   _atom_site_fract_x
   _atom_site_fract_y
   _atom_site_fract_z
   _atom_site_adp_type
   _atom_site_U_iso_or_equiv
   _atom_site_type_symbol
   C1         1.0     0.200291     0.457133     0.500000    Uiso  ? C
   C2         1.0     0.200304     0.323175     0.500000    Uiso  ? C
   C3         1.0     0.330796     0.284794     0.500000    Uiso  ? C
   C4         1.0     0.330788     0.495478     0.500000    Uiso  ? C
   C5         1.0     0.522791     0.779611     0.500000    Uiso  ? C
   C6         1.0     0.484383     0.649119     0.500000    Uiso  ? C
   C7         1.0     0.695021     0.649006     0.500000    Uiso  ? C
   C8         1.0     0.656748     0.779570     0.500000    Uiso  ? C
   C9         1.0     0.848734     0.284618     0.500000    Uiso  ? C
   C10        1.0     0.979260     0.323049     0.500000    Uiso  ? C
   C11        1.0     0.979215     0.456996     0.500000    Uiso  ? C
   C12        1.0     0.848680     0.495305     0.500000    Uiso  ? C
   C13        1.0     0.484305     0.131070     0.500000    Uiso  ? C
   C14        1.0     0.522682     0.000558     0.500000    Uiso  ? C
   C15        1.0     0.656635     0.000557     0.500000    Uiso  ? C
   C16        1.0     0.694939     0.131095     0.500000    Uiso  ? C
   C17        1.0     0.451795     0.890044     0.500000    Uiso  ? C
   C18        1.0     0.727663     0.890101     0.500000    Uiso  ? C
   C19        1.0     0.089734     0.527976     0.500000    Uiso  ? C
   C20        1.0     0.089828     0.252182     0.500000    Uiso  ? C
   N1         1.0     0.408993     0.390158     0.500000    Uiso  ? N
   N2         1.0     0.364415     0.615461     0.500000    Uiso  ? N
   N3         1.0     0.589639     0.570867     0.500000    Uiso  ? N
   N4         1.0     0.814943     0.615258     0.500000    Uiso  ? N
   N5         1.0     0.770475     0.389968     0.500000    Uiso  ? N
   N6         1.0     0.814920     0.164699     0.500000    Uiso  ? N
   N7         1.0     0.589593     0.209311     0.500000    Uiso  ? N
   N8         1.0     0.364367     0.164812     0.500000    Uiso  ? N
   Fe1        1.0     0.589583     0.390132     0.500000    Uiso  ? Fe
   H1         1.0     0.348925     0.889946     0.500000    Uiso  ? H
   H2         1.0     0.830542     0.890121     0.500000    Uiso  ? H
   H3         1.0     0.089845     0.149312     0.500000    Uiso  ? H
   H4         1.0     0.089628     0.630870     0.500000    Uiso  ? H
